   15
FINAL HEAT OF FORMATION =     0.000000
 C    -1.239163     2.146292     0.409762
 C    -0.707107     1.224745    -0.500000
 C    -1.494984     2.589388    -2.343095
 C    -0.835017     1.446292    -1.876429
 C    -1.899129     3.289388    -0.056905
 H     0.000000     0.000000     1.089000
 C    -2.027039     3.510935    -1.433333
 C     0.000000    -0.000000     0.000000
 F     1.026720     0.000002    -0.362997
 H    -0.421154     0.729460    -2.584093
Cl    -0.749062    -1.297413    -0.529666
 H    -1.594480     2.761720    -3.413760
 H    -1.139666     1.973960     1.480427
 H    -2.312992     4.006220     0.650760
 H    -2.540399     4.400100    -1.796333
